
#======================================================================
# CRYSTAL DATA
#----------------------------------------------------------------------
data_VESTA_phase_1

_chemical_name_common                  'Ca1 F2'
_cell_length_a                         5.44542(11)
_cell_length_b                         5.44542(11)
_cell_length_c                         5.44542(11)
_cell_angle_alpha                      90.000000
_cell_angle_beta                       90.000000
_cell_angle_gamma                      90.000000
_cell_volume                           161.470837
_space_group_name_H-M_alt              'F m -3 m'
_space_group_IT_number                 225

loop_
_space_group_symop_operation_xyz
   'x, y, z'
   '-x, -y, -z'
   '-x, -y, z'
   'x, y, -z'
   '-x, y, -z'
   'x, -y, z'
   'x, -y, -z'
   '-x, y, z'
   'z, x, y'
   '-z, -x, -y'
   'z, -x, -y'
   '-z, x, y'
   '-z, -x, y'
   'z, x, -y'
   '-z, x, -y'
   'z, -x, y'
   'y, z, x'
   '-y, -z, -x'
   '-y, z, -x'
   'y, -z, x'
   'y, -z, -x'
   '-y, z, x'
   '-y, -z, x'
   'y, z, -x'
   'y, x, -z'
   '-y, -x, z'
   '-y, -x, -z'
   'y, x, z'
   'y, -x, z'
   '-y, x, -z'
   '-y, x, z'
   'y, -x, -z'
   'x, z, -y'
   '-x, -z, y'
   '-x, z, y'
   'x, -z, -y'
   '-x, -z, -y'
   'x, z, y'
   'x, -z, y'
   '-x, z, -y'
   'z, y, -x'
   '-z, -y, x'
   'z, -y, x'
   '-z, y, -x'
   '-z, y, x'
   'z, -y, -x'
   '-z, -y, -x'
   'z, y, x'
   'x, y+1/2, z+1/2'
   '-x, -y+1/2, -z+1/2'
   '-x, -y+1/2, z+1/2'
   'x, y+1/2, -z+1/2'
   '-x, y+1/2, -z+1/2'
   'x, -y+1/2, z+1/2'
   'x, -y+1/2, -z+1/2'
   '-x, y+1/2, z+1/2'
   'z, x+1/2, y+1/2'
   '-z, -x+1/2, -y+1/2'
   'z, -x+1/2, -y+1/2'
   '-z, x+1/2, y+1/2'
   '-z, -x+1/2, y+1/2'
   'z, x+1/2, -y+1/2'
   '-z, x+1/2, -y+1/2'
   'z, -x+1/2, y+1/2'
   'y, z+1/2, x+1/2'
   '-y, -z+1/2, -x+1/2'
   '-y, z+1/2, -x+1/2'
   'y, -z+1/2, x+1/2'
   'y, -z+1/2, -x+1/2'
   '-y, z+1/2, x+1/2'
   '-y, -z+1/2, x+1/2'
   'y, z+1/2, -x+1/2'
   'y, x+1/2, -z+1/2'
   '-y, -x+1/2, z+1/2'
   '-y, -x+1/2, -z+1/2'
   'y, x+1/2, z+1/2'
   'y, -x+1/2, z+1/2'
   '-y, x+1/2, -z+1/2'
   '-y, x+1/2, z+1/2'
   'y, -x+1/2, -z+1/2'
   'x, z+1/2, -y+1/2'
   '-x, -z+1/2, y+1/2'
   '-x, z+1/2, y+1/2'
   'x, -z+1/2, -y+1/2'
   '-x, -z+1/2, -y+1/2'
   'x, z+1/2, y+1/2'
   'x, -z+1/2, y+1/2'
   '-x, z+1/2, -y+1/2'
   'z, y+1/2, -x+1/2'
   '-z, -y+1/2, x+1/2'
   'z, -y+1/2, x+1/2'
   '-z, y+1/2, -x+1/2'
   '-z, y+1/2, x+1/2'
   'z, -y+1/2, -x+1/2'
   '-z, -y+1/2, -x+1/2'
   'z, y+1/2, x+1/2'
   'x+1/2, y, z+1/2'
   '-x+1/2, -y, -z+1/2'
   '-x+1/2, -y, z+1/2'
   'x+1/2, y, -z+1/2'
   '-x+1/2, y, -z+1/2'
   'x+1/2, -y, z+1/2'
   'x+1/2, -y, -z+1/2'
   '-x+1/2, y, z+1/2'
   'z+1/2, x, y+1/2'
   '-z+1/2, -x, -y+1/2'
   'z+1/2, -x, -y+1/2'
   '-z+1/2, x, y+1/2'
   '-z+1/2, -x, y+1/2'
   'z+1/2, x, -y+1/2'
   '-z+1/2, x, -y+1/2'
   'z+1/2, -x, y+1/2'
   'y+1/2, z, x+1/2'
   '-y+1/2, -z, -x+1/2'
   '-y+1/2, z, -x+1/2'
   'y+1/2, -z, x+1/2'
   'y+1/2, -z, -x+1/2'
   '-y+1/2, z, x+1/2'
   '-y+1/2, -z, x+1/2'
   'y+1/2, z, -x+1/2'
   'y+1/2, x, -z+1/2'
   '-y+1/2, -x, z+1/2'
   '-y+1/2, -x, -z+1/2'
   'y+1/2, x, z+1/2'
   'y+1/2, -x, z+1/2'
   '-y+1/2, x, -z+1/2'
   '-y+1/2, x, z+1/2'
   'y+1/2, -x, -z+1/2'
   'x+1/2, z, -y+1/2'
   '-x+1/2, -z, y+1/2'
   '-x+1/2, z, y+1/2'
   'x+1/2, -z, -y+1/2'
   '-x+1/2, -z, -y+1/2'
   'x+1/2, z, y+1/2'
   'x+1/2, -z, y+1/2'
   '-x+1/2, z, -y+1/2'
   'z+1/2, y, -x+1/2'
   '-z+1/2, -y, x+1/2'
   'z+1/2, -y, x+1/2'
   '-z+1/2, y, -x+1/2'
   '-z+1/2, y, x+1/2'
   'z+1/2, -y, -x+1/2'
   '-z+1/2, -y, -x+1/2'
   'z+1/2, y, x+1/2'
   'x+1/2, y+1/2, z'
   '-x+1/2, -y+1/2, -z'
   '-x+1/2, -y+1/2, z'
   'x+1/2, y+1/2, -z'
   '-x+1/2, y+1/2, -z'
   'x+1/2, -y+1/2, z'
   'x+1/2, -y+1/2, -z'
   '-x+1/2, y+1/2, z'
   'z+1/2, x+1/2, y'
   '-z+1/2, -x+1/2, -y'
   'z+1/2, -x+1/2, -y'
   '-z+1/2, x+1/2, y'
   '-z+1/2, -x+1/2, y'
   'z+1/2, x+1/2, -y'
   '-z+1/2, x+1/2, -y'
   'z+1/2, -x+1/2, y'
   'y+1/2, z+1/2, x'
   '-y+1/2, -z+1/2, -x'
   '-y+1/2, z+1/2, -x'
   'y+1/2, -z+1/2, x'
   'y+1/2, -z+1/2, -x'
   '-y+1/2, z+1/2, x'
   '-y+1/2, -z+1/2, x'
   'y+1/2, z+1/2, -x'
   'y+1/2, x+1/2, -z'
   '-y+1/2, -x+1/2, z'
   '-y+1/2, -x+1/2, -z'
   'y+1/2, x+1/2, z'
   'y+1/2, -x+1/2, z'
   '-y+1/2, x+1/2, -z'
   '-y+1/2, x+1/2, z'
   'y+1/2, -x+1/2, -z'
   'x+1/2, z+1/2, -y'
   '-x+1/2, -z+1/2, y'
   '-x+1/2, z+1/2, y'
   'x+1/2, -z+1/2, -y'
   '-x+1/2, -z+1/2, -y'
   'x+1/2, z+1/2, y'
   'x+1/2, -z+1/2, y'
   '-x+1/2, z+1/2, -y'
   'z+1/2, y+1/2, -x'
   '-z+1/2, -y+1/2, x'
   'z+1/2, -y+1/2, x'
   '-z+1/2, y+1/2, -x'
   '-z+1/2, y+1/2, x'
   'z+1/2, -y+1/2, -x'
   '-z+1/2, -y+1/2, -x'
   'z+1/2, y+1/2, x'

loop_
   _atom_site_label
   _atom_site_occupancy
   _atom_site_fract_x
   _atom_site_fract_y
   _atom_site_fract_z
   _atom_site_adp_type
   _atom_site_B_iso_or_equiv
   _atom_site_type_symbol
   Ca1        1.0     0.000000     0.000000     0.000000    Bani  0.224001 Ca
   F1         1.0     0.250000     0.250000     0.250000    Bani  0.360885 F

loop_
   _atom_site_aniso_label
   _atom_site_aniso_U_11
   _atom_site_aniso_U_22
   _atom_site_aniso_U_33
   _atom_site_aniso_U_12
   _atom_site_aniso_U_13
   _atom_site_aniso_U_23
   Ca1	 0.00284  0.00284  0.00284  0.00000  0.00000  0.00000
   F1	 0.00457  0.00457  0.00457  0.00000  0.00000  0.00000
